ProjectFiles/HECO/DSSfiles/Backup/final_line_rural_1.dss
New Line.BB_51067432_0_1 phases=1 bus1=DEV_51067434_TSF50.1 bus2=DEV_51067434_1.1 linecode=OH_1/0_AAC length=distance units=ft
New Line.OH_260847_2_1 phases=1 bus1=DEV_260853_TSF50.3 bus2=DEV_260853_1.3 linecode=OH_1/0_AAC length=distance units=ft
New Line.OH_260849_2_1 phases=1 bus1=DEV_260852_TSF50.2 bus2=DEV_260852_1.2 linecode=OH_1/0_AAC length=distance units=ft
New Line.OH_260850_2_1 phases=1 bus1=DEV_260851_TSF50.3 bus2=DEV_260851_1.3 linecode=OH_1/0_AAC length=distance units=ft
New Line.OH_260850_2_2 phases=1 bus1=DEV_260851_1.3 bus2=DEV_260851_2.3 linecode=OH_1/0_AAC length=distance units=ft
New Line.OH_260930_2_1 phases=1 bus1=DEV_51187136_TSF50.3 bus2=DEV_51187136_1.3 linecode=OH_1/0_AAC length=distance units=ft
New Line.OH_260930_2_2 phases=1 bus1=DEV_51187136_1.3 bus2=DEV_51187136_2.3 linecode=OH_1/0_AAC length=distance units=ft
New Line.OH_260932_2_1 phases=1 bus1=DEV_260933_TSF50.3 bus2=DEV_260933_1.3 linecode=OH_1/0_AAC length=distance units=ft
New Line.OH_260937_2_1 phases=1 bus1=NODE_630695_TSF50.3 bus2=NODE_630695_1.3 linecode=OH_1/0_AAC length=distance units=ft
New Line.OH_260945_0_1 phases=1 bus1=NODE_630695_TSF50.3 bus2=NODE_630695_1.3 linecode=OH_1/0_AAC length=distance units=ft
New Line.OH_260945_0_2 phases=1 bus1=NODE_630695_1.3 bus2=NODE_630695_2.3 linecode=OH_1/0_AAC length=distance units=ft
New Line.OH_260946_0_1 phases=1 bus1=DEV_260949_TSF50.1 bus2=DEV_260949_1.1 linecode=OH_1/0_AAC length=distance units=ft
New Line.OH_260946_0_2 phases=1 bus1=DEV_260949_1.1 bus2=DEV_260949_2.1 linecode=OH_1/0_AAC length=distance units=ft
New Line.OH_260946_0_3 phases=1 bus1=DEV_260949_2.1 bus2=DEV_260949_3.1 linecode=OH_1/0_AAC length=distance units=ft
New Line.OH_260946_0_4 phases=1 bus1=DEV_260949_3.1 bus2=DEV_260949_4.1 linecode=OH_1/0_AAC length=distance units=ft
New Line.OH_260946_0_5 phases=1 bus1=DEV_260949_4.1 bus2=DEV_260949_5.1 linecode=OH_1/0_AAC length=distance units=ft
New Line.OH_260946_0_6 phases=1 bus1=DEV_260949_5.1 bus2=DEV_260949_6.1 linecode=OH_1/0_AAC length=distance units=ft
New Line.OH_260946_0_7 phases=1 bus1=DEV_260949_6.1 bus2=DEV_260949_7.1 linecode=OH_1/0_AAC length=distance units=ft
New Line.OH_261400_2_1 phases=1 bus1=NODE_11021972_TSF50.2 bus2=NODE_11021972_1.2 linecode=OH_1/0_AAC length=distance units=ft
New Line.OH_261400_2_2 phases=1 bus1=NODE_11021972_1.2 bus2=NODE_11021972_2.2 linecode=OH_1/0_AAC length=distance units=ft
New Line.OH_261479_2_1 phases=1 bus1=DEV_261481_TSF50.3 bus2=DEV_261481_1.3 linecode=OH_1/0_AAC length=distance units=ft
New Line.OH_261479_2_2 phases=1 bus1=DEV_261481_1.3 bus2=DEV_261481_2.3 linecode=OH_1/0_AAC length=distance units=ft
New Line.OH_261479_2_3 phases=1 bus1=DEV_261481_2.3 bus2=DEV_261481_3.3 linecode=OH_1/0_AAC length=distance units=ft
New Line.OH_261483_2_1 phases=1 bus1=DEV_261484_TSF50.2 bus2=DEV_261484_1.2 linecode=OH_1/0_AAC length=distance units=ft
New Line.OH_261483_2_2 phases=1 bus1=DEV_261484_1.2 bus2=DEV_261484_2.2 linecode=OH_1/0_AAC length=distance units=ft
New Line.OH_261483_2_3 phases=1 bus1=DEV_261484_2.2 bus2=DEV_261484_3.2 linecode=OH_1/0_AAC length=distance units=ft
New Line.OH_261486_2_1 phases=1 bus1=DEV_261487_TSF50.2 bus2=DEV_261487_1.2 linecode=OH_1/0_AAC length=distance units=ft
New Line.OH_261486_2_2 phases=1 bus1=DEV_261487_1.2 bus2=DEV_261487_2.2 linecode=OH_1/0_AAC length=distance units=ft
New Line.OH_261486_2_3 phases=1 bus1=DEV_261487_2.2 bus2=DEV_261487_3.2 linecode=OH_1/0_AAC length=distance units=ft
New Line.OH_261486_2_4 phases=1 bus1=DEV_261487_3.2 bus2=DEV_261487_4.2 linecode=OH_1/0_AAC length=distance units=ft
New Line.OH_261488_2_1 phases=1 bus1=DEV_261490_TSF50.3 bus2=DEV_261490_1.3 linecode=OH_1/0_AAC length=distance units=ft
New Line.OH_261535_0_1 phases=1 bus1=DEV_261606_TSF50.1 bus2=DEV_261606_1.1 linecode=OH_1/0_AAC length=distance units=ft
New Line.OH_261535_0_2 phases=1 bus1=DEV_261606_1.1 bus2=DEV_261606_2.1 linecode=OH_1/0_AAC length=distance units=ft
New Line.OH_261535_0_3 phases=1 bus1=DEV_261606_2.1 bus2=DEV_261606_3.1 linecode=OH_1/0_AAC length=distance units=ft
New Line.OH_261535_0_4 phases=1 bus1=DEV_261606_3.1 bus2=DEV_261606_4.1 linecode=OH_1/0_AAC length=distance units=ft
New Line.OH_261535_0_5 phases=1 bus1=DEV_261606_4.1 bus2=DEV_261606_5.1 linecode=OH_1/0_AAC length=distance units=ft
New Line.OH_261573_2_1 phases=1 bus1=DEV_261608_TSF50.3 bus2=DEV_261608_1.3 linecode=OH_1/0_AAC length=distance units=ft
New Line.OH_261573_2_2 phases=1 bus1=DEV_261608_1.3 bus2=DEV_261608_2.3 linecode=OH_1/0_AAC length=distance units=ft
New Line.OH_261576_2_1 phases=1 bus1=NODE_609861_TSF50.3 bus2=NODE_609861_1.3 linecode=OH_1/0_AAC length=distance units=ft
New Line.OH_261576_2_2 phases=1 bus1=NODE_609861_1.3 bus2=NODE_609861_2.3 linecode=OH_1/0_AAC length=distance units=ft
New Line.OH_261576_2_3 phases=1 bus1=NODE_609861_2.3 bus2=NODE_609861_3.3 linecode=OH_1/0_AAC length=distance units=ft
New Line.OH_261579_2_1 phases=1 bus1=NODE_609855_TSF50.3 bus2=NODE_609855_1.3 linecode=OH_1/0_AAC length=distance units=ft
New Line.OH_261579_2_2 phases=1 bus1=NODE_609855_1.3 bus2=NODE_609855_2.3 linecode=OH_1/0_AAC length=distance units=ft
New Line.OH_261584_2_1 phases=1 bus1=DEV_261585_TSF50.3 bus2=DEV_261585_1.3 linecode=OH_1/0_AAC length=distance units=ft
New Line.OH_261584_2_2 phases=1 bus1=DEV_261585_1.3 bus2=DEV_261585_2.3 linecode=OH_1/0_AAC length=distance units=ft
New Line.OH_261584_2_3 phases=1 bus1=DEV_261585_2.3 bus2=DEV_261585_3.3 linecode=OH_1/0_AAC length=distance units=ft
New Line.OH_261584_2_4 phases=1 bus1=DEV_261585_3.3 bus2=DEV_261585_4.3 linecode=OH_1/0_AAC length=distance units=ft
New Line.OH_261589_2_1 phases=1 bus1=DEV_261611_TSF50.3 bus2=DEV_261611_1.3 linecode=OH_1/0_AAC length=distance units=ft
New Line.OH_261589_2_2 phases=1 bus1=DEV_261611_1.3 bus2=DEV_261611_2.3 linecode=OH_1/0_AAC length=distance units=ft
New Line.OH_261589_2_3 phases=1 bus1=DEV_261611_2.3 bus2=DEV_261611_3.3 linecode=OH_1/0_AAC length=distance units=ft
New Line.OH_261592_2_1 phases=1 bus1=DEV_261610_TSF50.3 bus2=DEV_261610_1.3 linecode=OH_1/0_AAC length=distance units=ft
New Line.OH_261592_2_2 phases=1 bus1=DEV_261610_1.3 bus2=DEV_261610_2.3 linecode=OH_1/0_AAC length=distance units=ft
New Line.OH_261592_2_3 phases=1 bus1=DEV_261610_2.3 bus2=DEV_261610_3.3 linecode=OH_1/0_AAC length=distance units=ft
New Line.OH_261596_2_1 phases=1 bus1=DEV_261619_TSF50.3 bus2=DEV_261619_1.3 linecode=OH_1/0_AAC length=distance units=ft
New Line.OH_261604_2_1 phases=1 bus1=DEV_261599_TSF50.3 bus2=DEV_261599_1.3 linecode=OH_1/0_AAC length=distance units=ft
New Line.OH_261604_2_2 phases=1 bus1=DEV_261599_1.3 bus2=DEV_261599_2.3 linecode=OH_1/0_AAC length=distance units=ft
New Line.OH_261604_2_3 phases=1 bus1=DEV_261599_2.3 bus2=DEV_261599_3.3 linecode=OH_1/0_AAC length=distance units=ft
New Line.OH_261604_2_4 phases=1 bus1=DEV_261599_3.3 bus2=DEV_261599_4.3 linecode=OH_1/0_AAC length=distance units=ft
New Line.OH_261663_0_1 phases=1 bus1=DEV_261702_TSF50.1 bus2=DEV_261702_1.1 linecode=OH_1/0_AAC length=distance units=ft
New Line.OH_261663_0_2 phases=1 bus1=DEV_261702_1.1 bus2=DEV_261702_2.1 linecode=OH_1/0_AAC length=distance units=ft
New Line.OH_261663_0_3 phases=1 bus1=DEV_261702_2.1 bus2=DEV_261702_3.1 linecode=OH_1/0_AAC length=distance units=ft
New Line.OH_261663_0_4 phases=1 bus1=DEV_261702_3.1 bus2=DEV_261702_4.1 linecode=OH_1/0_AAC length=distance units=ft
New Line.OH_261663_0_5 phases=1 bus1=DEV_261702_4.1 bus2=DEV_261702_5.1 linecode=OH_1/0_AAC length=distance units=ft
New Line.OH_261663_0_6 phases=1 bus1=DEV_261702_5.1 bus2=DEV_261702_6.1 linecode=OH_1/0_AAC length=distance units=ft
New Line.OH_261664_0_1 phases=1 bus1=DEV_261701_TSF50.2 bus2=DEV_261701_1.2 linecode=OH_1/0_AAC length=distance units=ft
New Line.OH_261664_0_2 phases=1 bus1=DEV_261701_1.2 bus2=DEV_261701_2.2 linecode=OH_1/0_AAC length=distance units=ft
New Line.OH_261666_0_1 phases=1 bus1=NODE_11021904_TSF50.3 bus2=NODE_11021904_1.3 linecode=OH_1/0_AAC length=distance units=ft
New Line.OH_261666_0_2 phases=1 bus1=NODE_11021904_1.3 bus2=NODE_11021904_2.3 linecode=OH_1/0_AAC length=distance units=ft
New Line.OH_261666_0_3 phases=1 bus1=NODE_11021904_2.3 bus2=NODE_11021904_3.3 linecode=OH_1/0_AAC length=distance units=ft
New Line.OH_261666_0_4 phases=1 bus1=NODE_11021904_3.3 bus2=NODE_11021904_4.3 linecode=OH_1/0_AAC length=distance units=ft
New Line.OH_261666_0_5 phases=1 bus1=NODE_11021904_4.3 bus2=NODE_11021904_5.3 linecode=OH_1/0_AAC length=distance units=ft
New Line.OH_261666_0_6 phases=1 bus1=NODE_11021904_5.3 bus2=NODE_11021904_6.3 linecode=OH_1/0_AAC length=distance units=ft
New Line.OH_261666_0_7 phases=1 bus1=NODE_11021904_6.3 bus2=NODE_11021904_7.3 linecode=OH_1/0_AAC length=distance units=ft
New Line.OH_261691_2_1 phases=1 bus1=DEV_261698_TSF50.3 bus2=DEV_261698_1.3 linecode=OH_1/0_AAC length=distance units=ft
New Line.OH_261691_2_2 phases=1 bus1=DEV_261698_1.3 bus2=DEV_261698_2.3 linecode=OH_1/0_AAC length=distance units=ft
New Line.OH_261709_2_1 phases=1 bus1=NODE_619119_TSF50.2 bus2=NODE_619119_1.2 linecode=OH_1/0_AAC length=distance units=ft
New Line.OH_261747_0_1 phases=1 bus1=DEV_261736_TSF50.1 bus2=DEV_261736_1.1 linecode=OH_1/0_AAC length=distance units=ft
New Line.OH_261747_0_2 phases=1 bus1=DEV_261736_1.1 bus2=DEV_261736_2.1 linecode=OH_1/0_AAC length=distance units=ft
New Line.OH_261847_0_1 phases=1 bus1=DEV_261851_TSF50.1 bus2=DEV_261851_1.1 linecode=OH_1/0_AAC length=distance units=ft
New Line.OH_261847_0_2 phases=1 bus1=DEV_261851_1.1 bus2=DEV_261851_2.1 linecode=OH_1/0_AAC length=distance units=ft
New Line.OH_261847_0_3 phases=1 bus1=DEV_261851_2.1 bus2=DEV_261851_3.1 linecode=OH_1/0_AAC length=distance units=ft
New Line.OH_261847_0_4 phases=1 bus1=DEV_261851_3.1 bus2=DEV_261851_4.1 linecode=OH_1/0_AAC length=distance units=ft
New Line.OH_261847_0_5 phases=1 bus1=DEV_261851_4.1 bus2=DEV_261851_5.1 linecode=OH_1/0_AAC length=distance units=ft
New Line.OH_262646_2_1 phases=1 bus1=NODE_11021965_TSF50.3 bus2=NODE_11021965_1.3 linecode=OH_1/0_AAC length=distance units=ft
New Line.OH_262646_2_2 phases=1 bus1=NODE_11021965_1.3 bus2=NODE_11021965_2.3 linecode=OH_1/0_AAC length=distance units=ft
New Line.OH_262646_2_3 phases=1 bus1=NODE_11021965_2.3 bus2=NODE_11021965_3.3 linecode=OH_1/0_AAC length=distance units=ft
New Line.OH_262646_2_4 phases=1 bus1=NODE_11021965_3.3 bus2=NODE_11021965_4.3 linecode=OH_1/0_AAC length=distance units=ft
New Line.OH_262648_2_1 phases=1 bus1=NODE_619037_TSF50.3 bus2=NODE_619037_1.3 linecode=OH_1/0_AAC length=distance units=ft
New Line.OH_262654_2_1 phases=1 bus1=DEV_262689_TSF50.3 bus2=DEV_262689_1.3 linecode=OH_1/0_AAC length=distance units=ft
New Line.OH_262655_2_1 phases=1 bus1=DEV_262688_TSF50.3 bus2=DEV_262688_1.3 linecode=OH_1/0_AAC length=distance units=ft
New Line.OH_262655_2_2 phases=1 bus1=DEV_262688_1.3 bus2=DEV_262688_2.3 linecode=OH_1/0_AAC length=distance units=ft
New Line.OH_262655_2_3 phases=1 bus1=DEV_262688_2.3 bus2=DEV_262688_3.3 linecode=OH_1/0_AAC length=distance units=ft
New Line.OH_262657_2_1 phases=1 bus1=DEV_51117467_TSF50.3 bus2=DEV_51117467_1.3 linecode=OH_1/0_AAC length=distance units=ft
New Line.OH_262662_2_1 phases=1 bus1=NODE_11021961_TSF50.3 bus2=NODE_11021961_1.3 linecode=OH_1/0_AAC length=distance units=ft
New Line.OH_262673_0_1 phases=1 bus1=DEV_51079464_TSF50.3 bus2=DEV_51079464_1.3 linecode=OH_1/0_AAC length=distance units=ft
New Line.OH_262673_0_2 phases=1 bus1=DEV_51079464_1.3 bus2=DEV_51079464_2.3 linecode=OH_1/0_AAC length=distance units=ft
New Line.OH_262673_0_3 phases=1 bus1=DEV_51079464_2.3 bus2=DEV_51079464_3.3 linecode=OH_1/0_AAC length=distance units=ft
New Line.OH_262673_0_4 phases=1 bus1=DEV_51079464_3.3 bus2=DEV_51079464_4.3 linecode=OH_1/0_AAC length=distance units=ft
New Line.OH_262752_0_1 phases=1 bus1=DEV_51071988_TSF50.2 bus2=DEV_51071988_1.2 linecode=OH_1/0_AAC length=distance units=ft
New Line.OH_262864_2_1 phases=1 bus1=NODE_11021955_TSF50.3 bus2=NODE_11021955_1.3 linecode=OH_1/0_AAC length=distance units=ft
New Line.OH_262868_0_1 phases=1 bus1=NODE_11021952_TSF50.1 bus2=NODE_11021952_1.1 linecode=OH_1/0_AAC length=distance units=ft
New Line.OH_262868_0_2 phases=1 bus1=NODE_11021952_1.1 bus2=NODE_11021952_2.1 linecode=OH_1/0_AAC length=distance units=ft
New Line.OH_262870_2_1 phases=1 bus1=NODE_618828_TSF50.2 bus2=NODE_618828_1.2 linecode=OH_1/0_AAC length=distance units=ft
New Line.OH_262873_2_1 phases=1 bus1=NODE_618864_TSF50.3 bus2=NODE_618864_1.3 linecode=OH_1/0_AAC length=distance units=ft
New Line.OH_262873_2_2 phases=1 bus1=NODE_618864_1.3 bus2=NODE_618864_2.3 linecode=OH_1/0_AAC length=distance units=ft
New Line.OH_262876_2_1 phases=1 bus1=DEV_262877_TSF50.3 bus2=DEV_262877_1.3 linecode=OH_1/0_AAC length=distance units=ft
New Line.OH_262876_2_2 phases=1 bus1=DEV_262877_1.3 bus2=DEV_262877_2.3 linecode=OH_1/0_AAC length=distance units=ft
New Line.OH_262876_2_3 phases=1 bus1=DEV_262877_2.3 bus2=DEV_262877_3.3 linecode=OH_1/0_AAC length=distance units=ft
New Line.OH_262876_2_4 phases=1 bus1=DEV_262877_3.3 bus2=DEV_262877_4.3 linecode=OH_1/0_AAC length=distance units=ft
New Line.OH_262876_2_5 phases=1 bus1=DEV_262877_4.3 bus2=DEV_262877_5.3 linecode=OH_1/0_AAC length=distance units=ft
New Line.OH_262876_2_6 phases=1 bus1=DEV_262877_5.3 bus2=DEV_262877_6.3 linecode=OH_1/0_AAC length=distance units=ft
New Line.OH_262876_2_7 phases=1 bus1=DEV_262877_6.3 bus2=DEV_262877_7.3 linecode=OH_1/0_AAC length=distance units=ft
New Line.OH_262881_2_1 phases=1 bus1=DEV_262883_TSF50.2 bus2=DEV_262883_1.2 linecode=OH_1/0_AAC length=distance units=ft
New Line.OH_262881_2_2 phases=1 bus1=DEV_262883_1.2 bus2=DEV_262883_2.2 linecode=OH_1/0_AAC length=distance units=ft
New Line.OH_262881_2_3 phases=1 bus1=DEV_262883_2.2 bus2=DEV_262883_3.2 linecode=OH_1/0_AAC length=distance units=ft
New Line.OH_262888_0_1 phases=1 bus1=DEV_262891_TSF50.3 bus2=DEV_262891_1.3 linecode=OH_1/0_AAC length=distance units=ft
New Line.OH_262888_0_2 phases=1 bus1=DEV_262891_1.3 bus2=DEV_262891_2.3 linecode=OH_1/0_AAC length=distance units=ft
New Line.OH_262888_0_3 phases=1 bus1=DEV_262891_2.3 bus2=DEV_262891_3.3 linecode=OH_1/0_AAC length=distance units=ft
New Line.OH_262978_2_1 phases=1 bus1=DEV_263023_TSF50.3 bus2=DEV_263023_1.3 linecode=OH_1/0_AAC length=distance units=ft
New Line.OH_262978_2_2 phases=1 bus1=DEV_263023_1.3 bus2=DEV_263023_2.3 linecode=OH_1/0_AAC length=distance units=ft
New Line.OH_262978_2_3 phases=1 bus1=DEV_263023_2.3 bus2=DEV_263023_3.3 linecode=OH_1/0_AAC length=distance units=ft
New Line.OH_262978_2_4 phases=1 bus1=DEV_263023_3.3 bus2=DEV_263023_4.3 linecode=OH_1/0_AAC length=distance units=ft
New Line.OH_262978_2_5 phases=1 bus1=DEV_263023_4.3 bus2=DEV_263023_5.3 linecode=OH_1/0_AAC length=distance units=ft
New Line.OH_262978_2_6 phases=1 bus1=DEV_263023_5.3 bus2=DEV_263023_6.3 linecode=OH_1/0_AAC length=distance units=ft
New Line.OH_262978_2_7 phases=1 bus1=DEV_263023_6.3 bus2=DEV_263023_7.3 linecode=OH_1/0_AAC length=distance units=ft
New Line.OH_262978_2_8 phases=1 bus1=DEV_263023_7.3 bus2=DEV_263023_8.3 linecode=OH_1/0_AAC length=distance units=ft
New Line.OH_262979_2_1 phases=1 bus1=DEV_263022_TSF50.3 bus2=DEV_263022_1.3 linecode=OH_1/0_AAC length=distance units=ft
New Line.OH_262979_2_2 phases=1 bus1=DEV_263022_1.3 bus2=DEV_263022_2.3 linecode=OH_1/0_AAC length=distance units=ft
New Line.OH_262979_2_3 phases=1 bus1=DEV_263022_2.3 bus2=DEV_263022_3.3 linecode=OH_1/0_AAC length=distance units=ft
New Line.OH_262979_2_4 phases=1 bus1=DEV_263022_3.3 bus2=DEV_263022_4.3 linecode=OH_1/0_AAC length=distance units=ft
New Line.OH_262979_2_5 phases=1 bus1=DEV_263022_4.3 bus2=DEV_263022_5.3 linecode=OH_1/0_AAC length=distance units=ft
New Line.OH_262981_2_1 phases=1 bus1=NODE_627956_TSF50.3 bus2=NODE_627956_1.3 linecode=OH_1/0_AAC length=distance units=ft
New Line.OH_262981_2_2 phases=1 bus1=NODE_627956_1.3 bus2=NODE_627956_2.3 linecode=OH_1/0_AAC length=distance units=ft
New Line.OH_262983_2_1 phases=1 bus1=DEV_51163410_TSF50.2 bus2=DEV_51163410_1.2 linecode=OH_1/0_AAC length=distance units=ft
New Line.OH_262983_2_2 phases=1 bus1=DEV_51163410_1.2 bus2=DEV_51163410_2.2 linecode=OH_1/0_AAC length=distance units=ft
New Line.OH_262983_2_3 phases=1 bus1=DEV_51163410_2.2 bus2=DEV_51163410_3.2 linecode=OH_1/0_AAC length=distance units=ft
New Line.OH_262983_2_4 phases=1 bus1=DEV_51163410_3.2 bus2=DEV_51163410_4.2 linecode=OH_1/0_AAC length=distance units=ft
New Line.OH_262983_2_5 phases=1 bus1=DEV_51163410_4.2 bus2=DEV_51163410_5.2 linecode=OH_1/0_AAC length=distance units=ft
New Line.OH_262983_2_6 phases=1 bus1=DEV_51163410_5.2 bus2=DEV_51163410_6.2 linecode=OH_1/0_AAC length=distance units=ft
New Line.OH_262983_2_7 phases=1 bus1=DEV_51163410_6.2 bus2=DEV_51163410_7.2 linecode=OH_1/0_AAC length=distance units=ft
New Line.OH_262987_2_1 phases=1 bus1=NODE_31208075_TSF50.3 bus2=NODE_31208075_1.3 linecode=OH_1/0_AAC length=distance units=ft
New Line.OH_262987_2_2 phases=1 bus1=NODE_31208075_1.3 bus2=NODE_31208075_2.3 linecode=OH_1/0_AAC length=distance units=ft
New Line.OH_262987_2_3 phases=1 bus1=NODE_31208075_2.3 bus2=NODE_31208075_3.3 linecode=OH_1/0_AAC length=distance units=ft
New Line.OH_262987_2_4 phases=1 bus1=NODE_31208075_3.3 bus2=NODE_31208075_4.3 linecode=OH_1/0_AAC length=distance units=ft
New Line.OH_262987_2_5 phases=1 bus1=NODE_31208075_4.3 bus2=NODE_31208075_5.3 linecode=OH_1/0_AAC length=distance units=ft
New Line.OH_262987_2_6 phases=1 bus1=NODE_31208075_5.3 bus2=NODE_31208075_6.3 linecode=OH_1/0_AAC length=distance units=ft
New Line.OH_262987_2_7 phases=1 bus1=NODE_31208075_6.3 bus2=NODE_31208075_7.3 linecode=OH_1/0_AAC length=distance units=ft
New Line.OH_262992_2_1 phases=1 bus1=DEV_262993_TSF50.3 bus2=DEV_262993_1.3 linecode=OH_1/0_AAC length=distance units=ft
New Line.OH_262998_2_1 phases=1 bus1=DEV_262999_TSF50.3 bus2=DEV_262999_1.3 linecode=OH_1/0_AAC length=distance units=ft
New Line.OH_262998_2_2 phases=1 bus1=DEV_262999_1.3 bus2=DEV_262999_2.3 linecode=OH_1/0_AAC length=distance units=ft
New Line.OH_262998_2_3 phases=1 bus1=DEV_262999_2.3 bus2=DEV_262999_3.3 linecode=OH_1/0_AAC length=distance units=ft
New Line.OH_262998_2_4 phases=1 bus1=DEV_262999_3.3 bus2=DEV_262999_4.3 linecode=OH_1/0_AAC length=distance units=ft
New Line.OH_263000_2_1 phases=1 bus1=DEV_263008_TSF50.3 bus2=DEV_263008_1.3 linecode=OH_1/0_AAC length=distance units=ft
New Line.OH_263000_2_2 phases=1 bus1=DEV_263008_1.3 bus2=DEV_263008_2.3 linecode=OH_1/0_AAC length=distance units=ft
New Line.OH_263000_2_3 phases=1 bus1=DEV_263008_2.3 bus2=DEV_263008_3.3 linecode=OH_1/0_AAC length=distance units=ft
New Line.OH_263011_0_1 phases=1 bus1=DEV_51081604_TSF50.1 bus2=DEV_51081604_1.1 linecode=OH_1/0_AAC length=distance units=ft
New Line.OH_263013_2_1 phases=1 bus1=DEV_263015_TSF50.3 bus2=DEV_263015_1.3 linecode=OH_1/0_AAC length=distance units=ft
New Line.OH_263013_2_2 phases=1 bus1=DEV_263015_1.3 bus2=DEV_263015_2.3 linecode=OH_1/0_AAC length=distance units=ft
New Line.OH_263013_2_3 phases=1 bus1=DEV_263015_2.3 bus2=DEV_263015_3.3 linecode=OH_1/0_AAC length=distance units=ft
New Line.OH_263013_2_4 phases=1 bus1=DEV_263015_3.3 bus2=DEV_263015_4.3 linecode=OH_1/0_AAC length=distance units=ft
New Line.OH_263013_2_5 phases=1 bus1=DEV_263015_4.3 bus2=DEV_263015_5.3 linecode=OH_1/0_AAC length=distance units=ft
New Line.OH_263016_2_1 phases=1 bus1=DEV_263017_TSF50.3 bus2=DEV_263017_1.3 linecode=OH_1/0_AAC length=distance units=ft
New Line.OH_263089_2_1 phases=1 bus1=NODE_11021906_TSF50.3 bus2=NODE_11021906_1.3 linecode=OH_1/0_AAC length=distance units=ft
New Line.OH_263090_2_1 phases=1 bus1=DEV_263125_TSF50.2 bus2=DEV_263125_1.2 linecode=OH_1/0_AAC length=distance units=ft
New Line.OH_263090_2_2 phases=1 bus1=DEV_263125_1.2 bus2=DEV_263125_2.2 linecode=OH_1/0_AAC length=distance units=ft
New Line.OH_263090_2_3 phases=1 bus1=DEV_263125_2.2 bus2=DEV_263125_3.2 linecode=OH_1/0_AAC length=distance units=ft
New Line.OH_263090_2_4 phases=1 bus1=DEV_263125_3.2 bus2=DEV_263125_4.2 linecode=OH_1/0_AAC length=distance units=ft
New Line.OH_263090_2_5 phases=1 bus1=DEV_263125_4.2 bus2=DEV_263125_5.2 linecode=OH_1/0_AAC length=distance units=ft
New Line.OH_263092_2_1 phases=1 bus1=NODE_609823_TSF50.3 bus2=NODE_609823_1.3 linecode=OH_1/0_AAC length=distance units=ft
New Line.OH_263092_2_2 phases=1 bus1=NODE_609823_1.3 bus2=NODE_609823_2.3 linecode=OH_1/0_AAC length=distance units=ft
New Line.OH_263092_2_3 phases=1 bus1=NODE_609823_2.3 bus2=NODE_609823_3.3 linecode=OH_1/0_AAC length=distance units=ft
New Line.OH_263094_0_1 phases=1 bus1=DEV_51051935_TSF50.2 bus2=DEV_51051935_1.2 linecode=OH_1/0_AAC length=distance units=ft
New Line.OH_263094_0_2 phases=1 bus1=DEV_51051935_1.2 bus2=DEV_51051935_2.2 linecode=OH_1/0_AAC length=distance units=ft
New Line.OH_263094_0_3 phases=1 bus1=DEV_51051935_2.2 bus2=DEV_51051935_3.2 linecode=OH_1/0_AAC length=distance units=ft
New Line.OH_263094_0_4 phases=1 bus1=DEV_51051935_3.2 bus2=DEV_51051935_4.2 linecode=OH_1/0_AAC length=distance units=ft
New Line.OH_263094_0_5 phases=1 bus1=DEV_51051935_4.2 bus2=DEV_51051935_5.2 linecode=OH_1/0_AAC length=distance units=ft
New Line.OH_263095_2_1 phases=1 bus1=NODE_609796_TSF50.3 bus2=NODE_609796_1.3 linecode=OH_1/0_AAC length=distance units=ft
New Line.OH_263105_2_1 phases=1 bus1=DEV_263108_TSF50.3 bus2=DEV_263108_1.3 linecode=OH_1/0_AAC length=distance units=ft
New Line.OH_263105_2_2 phases=1 bus1=DEV_263108_1.3 bus2=DEV_263108_2.3 linecode=OH_1/0_AAC length=distance units=ft
New Line.OH_263110_0_1 phases=1 bus1=DEV_263111_TSF50.2 bus2=DEV_263111_1.2 linecode=OH_1/0_AAC length=distance units=ft
New Line.OH_263114_2_1 phases=1 bus1=DEV_263116_TSF50.3 bus2=DEV_263116_1.3 linecode=OH_1/0_AAC length=distance units=ft
New Line.OH_263114_2_2 phases=1 bus1=DEV_263116_1.3 bus2=DEV_263116_2.3 linecode=OH_1/0_AAC length=distance units=ft
New Line.OH_263114_2_3 phases=1 bus1=DEV_263116_2.3 bus2=DEV_263116_3.3 linecode=OH_1/0_AAC length=distance units=ft
New Line.OH_263114_2_4 phases=1 bus1=DEV_263116_3.3 bus2=DEV_263116_4.3 linecode=OH_1/0_AAC length=distance units=ft
New Line.OH_263114_2_5 phases=1 bus1=DEV_263116_4.3 bus2=DEV_263116_5.3 linecode=OH_1/0_AAC length=distance units=ft
New Line.OH_263114_2_6 phases=1 bus1=DEV_263116_5.3 bus2=DEV_263116_6.3 linecode=OH_1/0_AAC length=distance units=ft
New Line.OH_263118_2_1 phases=1 bus1=DEV_263119_TSF50.3 bus2=DEV_263119_1.3 linecode=OH_1/0_AAC length=distance units=ft
New Line.OH_263118_2_2 phases=1 bus1=DEV_263119_1.3 bus2=DEV_263119_2.3 linecode=OH_1/0_AAC length=distance units=ft
New Line.OH_263121_2_1 phases=1 bus1=DEV_263123_TSF50.2 bus2=DEV_263123_1.2 linecode=OH_1/0_AAC length=distance units=ft
New Line.OH_263121_2_2 phases=1 bus1=DEV_263123_1.2 bus2=DEV_263123_2.2 linecode=OH_1/0_AAC length=distance units=ft
New Line.OH_263135_2_1 phases=1 bus1=DEV_263138_TSF50.3 bus2=DEV_263138_1.3 linecode=OH_1/0_AAC length=distance units=ft
New Line.OH_263157_0_1 phases=1 bus1=NODE_619013_TSF50.2 bus2=NODE_619013_1.2 linecode=OH_1/0_AAC length=distance units=ft
New Line.OH_263157_0_2 phases=1 bus1=NODE_619013_1.2 bus2=NODE_619013_2.2 linecode=OH_1/0_AAC length=distance units=ft
New Line.OH_263157_0_3 phases=1 bus1=NODE_619013_2.2 bus2=NODE_619013_3.2 linecode=OH_1/0_AAC length=distance units=ft
New Line.OH_263157_0_4 phases=1 bus1=NODE_619013_3.2 bus2=NODE_619013_4.2 linecode=OH_1/0_AAC length=distance units=ft
New Line.OH_263160_0_1 phases=1 bus1=DEV_263162_TSF50.2 bus2=DEV_263162_1.2 linecode=OH_1/0_AAC length=distance units=ft
New Line.OH_263160_0_2 phases=1 bus1=DEV_263162_1.2 bus2=DEV_263162_2.2 linecode=OH_1/0_AAC length=distance units=ft
New Line.OH_263160_0_3 phases=1 bus1=DEV_263162_2.2 bus2=DEV_263162_3.2 linecode=OH_1/0_AAC length=distance units=ft
New Line.OH_263163_0_1 phases=1 bus1=DEV_263265_TSF50.2 bus2=DEV_263265_1.2 linecode=OH_1/0_AAC length=distance units=ft
New Line.OH_263163_0_2 phases=1 bus1=DEV_263265_1.2 bus2=DEV_263265_2.2 linecode=OH_1/0_AAC length=distance units=ft
...
